Version 4
SHEET 1 2264 1044
WIRE 704 -80 384 -80
WIRE 1520 -80 1296 -80
WIRE 1808 -80 1584 -80
WIRE 704 -48 704 -80
WIRE 704 -48 640 -48
WIRE 768 -48 704 -48
WIRE 640 -16 640 -48
WIRE 768 -16 768 -48
WIRE 384 48 384 -80
WIRE 640 80 640 48
WIRE 640 80 576 80
WIRE 768 80 768 48
WIRE 992 80 768 80
WIRE 1120 80 992 80
WIRE 1296 80 1296 -80
WIRE 1296 80 1120 80
WIRE 1392 80 1296 80
WIRE 1472 80 1392 80
WIRE 1664 80 1632 80
WIRE 1808 80 1808 -80
WIRE 1808 80 1664 80
WIRE 1984 80 1808 80
WIRE 2128 80 1984 80
WIRE 640 96 640 80
WIRE 768 96 768 80
WIRE 1392 112 1392 80
WIRE 1664 112 1664 80
WIRE 1664 112 1632 112
WIRE 1984 112 1984 80
WIRE 1808 128 1808 80
WIRE 2128 160 2128 80
WIRE 992 176 992 80
WIRE 1120 176 1120 80
WIRE 640 192 640 160
WIRE 704 192 640 192
WIRE 768 192 768 160
WIRE 768 192 704 192
WIRE 1552 224 1552 176
WIRE 1552 224 1456 224
WIRE 1808 224 1808 192
WIRE 1808 224 1552 224
WIRE 1984 224 1984 192
WIRE 1984 224 1808 224
WIRE 1552 256 1552 224
WIRE 1456 272 1456 224
WIRE 384 368 384 128
WIRE 704 368 704 192
WIRE 704 368 384 368
WIRE 992 368 992 240
WIRE 992 368 704 368
WIRE 1120 368 1120 240
WIRE 1120 368 992 368
WIRE 1392 368 1392 176
WIRE 1392 368 1120 368
WIRE 1456 368 1456 336
WIRE 1456 368 1392 368
WIRE 1552 368 1552 336
WIRE 1552 368 1456 368
WIRE 2128 368 2128 224
WIRE 2128 368 1552 368
WIRE 384 400 384 368
WIRE 1456 400 1456 368
WIRE 1552 400 1552 368
WIRE 1456 512 1456 464
WIRE 1552 512 1552 480
WIRE 1552 512 1456 512
WIRE 1808 512 1552 512
WIRE 1984 512 1808 512
WIRE 2128 512 2128 368
WIRE 992 544 992 368
WIRE 1120 544 1120 368
WIRE 1984 544 1984 512
WIRE 1392 560 1392 368
WIRE 1808 560 1808 512
WIRE 1552 576 1552 512
WIRE 576 656 576 80
WIRE 992 656 992 608
WIRE 992 656 576 656
WIRE 1120 656 1120 608
WIRE 1120 656 992 656
WIRE 1296 656 1120 656
WIRE 1392 656 1392 624
WIRE 1392 656 1296 656
WIRE 1488 656 1392 656
WIRE 1808 656 1808 624
WIRE 1808 656 1616 656
WIRE 1984 656 1984 624
WIRE 1984 656 1808 656
WIRE 2128 656 2128 576
WIRE 2128 656 1984 656
WIRE 1296 816 1296 656
WIRE 1520 816 1296 816
WIRE 1808 816 1808 656
WIRE 1808 816 1584 816
FLAG 384 400 0
SYMBOL voltage 384 32 R0
WINDOW 123 0 0 Left 0
WINDOW 39 0 0 Left 0
SYMATTR InstName V1
SYMATTR Value SINE(0 21 60)
SYMBOL diode 656 48 R180
WINDOW 0 24 64 Left 2
WINDOW 3 24 0 Left 2
SYMATTR InstName D1
SYMBOL diode 752 -16 R0
SYMATTR InstName D2
SYMBOL diode 752 160 M180
WINDOW 0 24 64 Left 2
WINDOW 3 24 0 Left 2
SYMATTR InstName D3
SYMBOL diode 656 96 M0
SYMATTR InstName D4
SYMBOL cap 976 176 R0
SYMATTR InstName C1
SYMATTR Value 10000µ
SYMBOL cap 1104 176 R0
SYMATTR InstName C2
SYMATTR Value 10000µ
SYMBOL cap 976 544 R0
SYMATTR InstName C3
SYMATTR Value 10000µ
SYMBOL cap 1104 544 R0
SYMATTR InstName C4
SYMATTR Value 10000µ
SYMBOL res 1968 208 M180
WINDOW 0 36 76 Left 2
WINDOW 3 36 40 Left 2
SYMATTR InstName R1
SYMATTR Value 240
SYMBOL res 1536 240 R0
SYMATTR InstName R2
SYMATTR Value 2640
SYMBOL cap 2112 160 R0
SYMATTR InstName C5
SYMATTR Value 1µ
SYMBOL diode 1584 -96 R90
WINDOW 0 0 32 VBottom 2
WINDOW 3 32 32 VTop 2
SYMATTR InstName D5
SYMBOL cap 1376 112 R0
SYMATTR InstName C6
SYMATTR Value 1µ
SYMBOL diode 1824 192 R180
WINDOW 0 24 64 Left 2
WINDOW 3 24 0 Left 2
SYMATTR InstName D6
SYMBOL cap 1440 272 R0
SYMATTR InstName C7
SYMATTR Value 10µ
SYMBOL res 1536 384 R0
SYMATTR InstName R3
SYMATTR Value 2640
SYMBOL AutoGenerated\\LM317_TRANS 1552 112 R0
SYMATTR InstName U1
SYMBOL res 1968 528 R0
SYMATTR InstName R4
SYMATTR Value 240
SYMBOL cap 1440 400 R0
SYMATTR InstName C8
SYMATTR Value 10µ
SYMBOL diode 1824 624 R180
WINDOW 0 24 64 Left 2
WINDOW 3 24 0 Left 2
SYMATTR InstName D7
SYMBOL diode 1520 832 R270
WINDOW 0 32 32 VTop 2
WINDOW 3 0 32 VBottom 2
SYMATTR InstName D8
SYMBOL cap 2112 512 R0
SYMATTR InstName C9
SYMATTR Value 1µ
SYMBOL cap 1408 624 R180
WINDOW 0 24 56 Left 2
WINDOW 3 24 8 Left 2
SYMATTR InstName C10
SYMATTR Value 1µ
SYMBOL AutoGenerated\\LM337_N_TRANS 1552 624 M180
SYMATTR InstName U2
TEXT 110 248 Left 2 !.tran 500m
TEXT 1336 -24 Left 2 ;V_OUT = 1.25 (1+R2/R1) + I_ADJ(R2)
TEXT 472 104 Left 2 ;15VAC
